
Note: Compatibility modes selected: hs a

Warning: m=xx on .subckt line will override multiplier m hierarchy!


Circuit: ** sch_path: /fs1/eecg/tcc/lizongh2/sky130_comparator/xschem/double_tail_comp_tb.sch

option SCALE: Scale is set to 1e-06 for instance and model parameters
Reducing trtol to 1 for xspice 'A' devices
Doing analysis at TEMP = 27.000000 and TNOM = 27.000000

Note: vclk: dc value used for op instead of transient time=0 value.

No. of Data Rows : 1
ASCII raw file "double_tail_comp_tb_op"
Note: Simulation executed from .control section 
