
Note: Compatibility modes selected: hs a

Warning: m=xx on .subckt line will override multiplier m hierarchy!


Circuit: ** sch_path: /fs1/eecg/tcc/lizongh2/sky130_comparator/xschem/double_tail_comp_pex_tb.sch

option SCALE: Scale is set to 1e-06 for instance and model parameters
Reducing trtol to 1 for xspice 'A' devices
Doing analysis at TEMP = 27.000000 and TNOM = 27.000000


Initial Transient Solution
--------------------------

Node                                   Voltage
----                                   -------
x1.vss.t36                         4.84886e-12
x1.clk.t0                                    0
x1.a_88_n1613.t11                     0.692694
x1.vss.t35                         8.88685e-05
x1.a_88_n1613.t7                      0.692694
x1.clk.t1                                    0
x1.vss.t34                          4.8345e-12
x1.vss.t33                         8.88685e-05
x1.a_88_n1613.t12                     0.692694
x1.clk.t2                                    0
x1.vss.t32                         6.57354e-05
x1.vss.t31                         8.88632e-05
x1.vout_p.t3                         0.0724047
x1.di_n.t12                            1.79976
x1.vss.t7                            0.0090045
x1.vss.t6                          8.88525e-05
x1.vout_p.t2                         0.0726328
x1.di_n.t13                            1.79976
x1.vss.t38                           0.0141463
x1.vss.t37                         8.88602e-05
x1.a_88_n1613.t3                      0.692694
x1.vin_p.t0                           0.950896
x1.di_n.t2                             1.79976
x1.vss.t3                          8.88525e-05
x1.a_88_n1613.t28                     0.692694
x1.vin_n.t0                           0.900896
x1.di_p.t11                            1.79976
x1.vss.t20                          8.8867e-05
x1.vout_p.t6                         0.0872867
x1.vout_n.t8                         0.0877571
x1.vss.t49                         1.66727e-05
x1.vss.t48                         8.88681e-05
x1.a_88_n1613.t9                      0.692694
x1.clk.t3                                    0
x1.vss.t30                         3.38132e-05
x1.vss.t29                         8.88671e-05
x1.di_p.t10                            1.79976
x1.vin_n.t1                           0.900896
x1.a_88_n1613.t20                     0.692694
x1.vss.t44                           8.886e-05
x1.vss.t11                         1.66727e-05
x1.vout_p.t8                         0.0877549
x1.vout_n.t3                          0.087287
x1.vss.t10                          8.8868e-05
x1.vdd.t34                             1.78621
x1.clk_bar.t0                                0
x1.latch.inv0.vdd                      1.70648
x1.vdd.t33                             1.79973
x1.a_88_n1613.t5                      0.692694
x1.clk.t4                                    0
x1.vss.t28                          4.8345e-12
x1.vss.t27                         8.88684e-05
x1.vout_p.t9                         0.0877549
x1.vout_n.t1                          0.169248
x1.vdd.t1                              1.79973
x1.a_88_n1613.t21                     0.692694
x1.vin_p.t1                           0.950896
x1.di_n.t7                             1.79976
x1.vss.t16                         8.88655e-05
x1.vdd.t32                             1.78623
x1.clk_bar.t1                                0
x1.vdd.t31                             1.79973
x1.vss.t9                             0.014187
x1.di_n.t14                            1.79976
x1.vout_p.t1                         0.0726474
x1.vss.t8                          8.88566e-05
x1.di_p.t9                             1.79976
x1.vin_n.t2                           0.900896
x1.a_88_n1613.t2                      0.692694
x1.vss.t2                           8.8868e-05
x1.clk_bar.t2                                0
x1.vdd.t30                             1.79178
x1.vdd.t29                             1.79973
x1.clk_bar.t3                                0
x1.vdd.t28                             1.78625
x1.vdd.t27                             1.79973
x1.vss.t26                         6.57355e-05
x1.clk.t5                                    0
x1.a_88_n1613.t13                     0.692694
x1.vss.t25                          8.8863e-05
x1.vss.t53                          0.00902038
x1.di_n.t15                            1.79976
x1.vout_p.t0                         0.0724763
x1.vss.t52                         8.88631e-05
x1.di_p.t8                             1.79976
x1.vin_n.t3                           0.900896
x1.a_88_n1613.t23                     0.692694
x1.vss.t50                         8.88435e-05
x1.vdd.t11                             1.79976
x1.clk.t6                                    0
x1.di_p.t0                             1.79976
x1.vdd.t10                             1.79976
x1.clk_bar.t4                                0
x1.vdd.t26                             1.78623
x1.vdd.t25                             1.79973
x1.vss.t24                         4.84886e-12
x1.clk.t7                                    0
x1.a_88_n1613.t16                     0.692694
x1.vss.t23                         8.88684e-05
x1.a_88_n1613.t10                     0.692694
x1.clk.t8                                    0
x1.vss.t22                          4.8345e-12
x1.di_n.t9                             1.79976
x1.vin_p.t2                           0.950896
x1.a_88_n1613.t26                     0.692694
x1.vss.t56                         8.88413e-05
x1.di_n.t6                             1.79976
x1.vin_p.t3                           0.950896
x1.a_88_n1613.t18                     0.692694
x1.vss.t21                         3.38133e-05
x1.clk.t9                                    0
x1.a_88_n1613.t14                     0.692694
x1.a_88_n1613.t0                      0.692694
x1.vin_p.t4                           0.950896
x1.di_n.t0                             1.79976
x1.vss.t0                          8.88438e-05
x1.a_88_n1613.t1                      0.692694
x1.vin_p.t5                           0.950896
x1.di_n.t1                             1.79976
x1.vss.t1                          8.88681e-05
x1.a_88_n1613.t31                     0.692694
x1.vin_n.t4                           0.900896
x1.di_p.t7                             1.79976
x1.vss.t58                         8.88564e-05
x1.a_88_n1613.t4                      0.692694
x1.vin_n.t5                           0.900896
x1.di_p.t6                             1.79976
x1.vss.t12                          8.8841e-05
x1.clk_bar.t5                                0
x1.vdd.t24                             1.78624
x1.vdd.t3                              1.79973
x1.a_88_n1613.t8                      0.692694
x1.clk.t10                                   0
x1.vss.t19                         3.38133e-05
x1.vss.t18                         8.88654e-05
x1.di_n.t8                             1.79976
x1.vin_p.t6                           0.950896
x1.a_88_n1613.t24                     0.692694
x1.vss.t51                         8.88566e-05
x1.vss.t54                         1.15848e-07
x1.vout_n.t9                         0.0877571
x1.vout_p.t7                         0.0872867
x1.di_p.t5                             1.79976
x1.vin_n.t6                           0.900896
x1.a_88_n1613.t22                     0.692694
x1.vss.t45                         8.88523e-05
x1.vss.t17                         3.38132e-05
x1.clk.t11                                   0
x1.a_88_n1613.t15                     0.692694
x1.di_p.t1                             1.79976
x1.clk.t12                                   0
x1.vdd.t9                              1.79976
x1.vdd.t8                              1.79976
x1.vdd.t23                             1.79176
x1.clk_bar.t6                                0
x1.vdd.t22                             1.79973
x1.a_88_n1613.t17                     0.692694
x1.vin_p.t7                           0.950896
x1.di_n.t5                             1.79976
x1.vss.t41                         8.88601e-05
x1.vout_n.t0                          0.169391
x1.vout_p.t10                        0.0877549
x1.vdd.t0                              1.79973
x1.vss.t14                          0.00904951
x1.di_p.t12                            1.79976
x1.vout_n.t7                         0.0724504
x1.vss.t13                         8.88523e-05
x1.vdd.t21                             1.78621
x1.clk_bar.t7                                0
x1.vdd.t20                             1.79973
x1.vout_n.t2                          0.087287
x1.vout_p.t11                        0.0877549
x1.vss.t40                         1.15848e-07
x1.vss.t39                         8.88684e-05
x1.clk_bar.t8                                0
x1.vdd.t19                             1.78624
x1.vdd.t18                             1.79973
x1.vout_n.t10                        0.0877571
x1.vout_p.t4                           0.16939
x1.vout_n.t6                         0.0724311
x1.di_p.t13                            1.79976
x1.vss.t5                           0.00897539
x1.vss.t4                           8.8863e-05
x1.vout_n.t5                         0.0726058
x1.di_p.t14                            1.79976
x1.vss.t43                           0.0141453
x1.vss.t42                         8.88564e-05
x1.di_n.t4                             1.79976
x1.clk.t13                                   0
x1.vdd.t7                              1.79976
x1.vdd.t6                              1.79976
x1.vdd.t17                             1.78621
x1.clk_bar.t9                                0
x1.vdd.t16                             1.79973
x1.vdd.t5                              1.79976
x1.clk.t14                                   0
x1.di_n.t3                             1.79976
x1.vdd.t4                              1.79976
x1.clk_bar.t10                               0
x1.vdd.t15                             1.78623
x1.vdd.t14                             1.79973
x1.di_p.t4                             1.79976
x1.vin_n.t7                           0.900896
x1.a_88_n1613.t29                     0.692694
x1.vdd.t13                             1.78621
x1.clk_bar.t11                               0
x1.vdd.t12                             1.79973
x1.di_n.t11                            1.79976
x1.vin_p.t8                           0.950896
x1.a_88_n1613.t30                     0.692694
x1.a_88_n1613.t19                     0.692694
x1.vin_n.t8                           0.900896
x1.di_p.t3                             1.79976
x1.vout_p.t5                          0.169247
x1.vout_n.t11                        0.0877571
x1.vdd.t2                              1.79973
x1.vss.t47                            0.014188
x1.di_p.t15                            1.79976
x1.vout_n.t4                         0.0726749
x1.vss.t46                           8.886e-05
x1.vss.t15                         4.84886e-12
x1.clk.t15                                   0
x1.a_88_n1613.t6                      0.692694
x1.di_n.t10                            1.79976
x1.vin_p.t9                           0.950896
x1.a_88_n1613.t27                     0.692694
x1.vss.t57                         8.88479e-05
x1.a_88_n1613.t25                     0.692694
x1.vin_n.t9                           0.900896
x1.di_p.t2                             1.79976
x1.vss.t55                         8.88477e-05
x1.clk.n6                                    0
x1.clk.n5                                    0
x1.clk.n11                                   0
x1.clk.n9                                    0
x1.clk.n8                                    0
x1.clk.n3                                    0
x1.clk.n1                                    0
x1.clk.n0                                    0
x1.clk.n7                                    0
x1.clk.n10                                   0
x1.clk.n2                                    0
x1.clk.n12                                   0
x1.clk.n4                                    0
vclk                                         0
x1.a_88_n1613.n1                      0.692694
x1.a_88_n1613.n16                     0.692694
x1.a_88_n1613.n15                     0.692694
x1.a_88_n1613.n14                     0.692694
x1.a_88_n1613.n13                     0.692694
x1.a_88_n1613.n0                      0.692694
x1.a_88_n1613.n12                     0.692694
x1.a_88_n1613.n11                     0.692694
x1.a_88_n1613.n3                      0.692694
x1.a_88_n1613.n2                      0.692694
x1.a_88_n1613.n8                      0.692694
x1.a_88_n1613.n9                      0.692694
x1.a_88_n1613.n7                      0.692694
x1.a_88_n1613.n5                      0.692694
x1.a_88_n1613.n4                      0.692694
x1.a_88_n1613.n10                     0.692694
x1.a_88_n1613.n6                      0.692694
x1.a_88_n1613.n18                     0.692694
x1.a_88_n1613.n17                     0.692694
x1.vss.n66                         8.88447e-05
x1.vss.n17                         8.88445e-05
x1.vss.n65                         8.88431e-05
x1.vss.n49                         8.88428e-05
x1.vss.n60                         8.88358e-05
x1.vss.n59                         8.88384e-05
x1.vss.n42                         8.88355e-05
x1.vss.n41                         8.88381e-05
x1.vss.n57                         8.88388e-05
x1.vss.n56                         8.88358e-05
x1.vss.n58                         8.88403e-05
x1.vss.n16                         8.88391e-05
x1.vss.n15                         8.88359e-05
x1.vss.n64                          8.8842e-05
x1.vss.n69                         8.88359e-05
x1.vss.n68                         8.88397e-05
x1.vss.n67                         8.88453e-05
x1.vss.n47                         8.88382e-05
x1.vss.n46                         8.88355e-05
x1.vss.n48                         8.88417e-05
x1.vss.n20                         8.88355e-05
x1.vss.n19                         8.88379e-05
x1.vss.n63                         8.88385e-05
x1.vss.n62                         8.88358e-05
x1.vss.n61                         8.88358e-05
x1.vss.n50                         8.88382e-05
x1.vss.n26                         8.88355e-05
x1.vss.n25                         8.88394e-05
x1.vss.n24                         8.88451e-05
x1.vss.n23                         8.88355e-05
x1.vss.n18                         8.88389e-05
x1.vss.n39                         8.88385e-05
x1.vss.n38                         8.88355e-05
x1.vss.n40                           8.884e-05
x1.vss.n76                         5.21619e-05
x1.vss.n11                         1.66727e-05
x1.vss.n0                          1.66727e-05
x1.vss.n30                         6.57355e-05
x1.vss.n33                         8.88354e-05
x1.vss.n72                         8.88357e-05
x1.vss.n75                         6.57354e-05
x1.vss.n9                          1.15839e-07
x1.vss.n2                          1.15839e-07
x1.vss.n29                         5.21621e-05
x1.vss.n74                         7.93089e-05
x1.vss.n73                           0.0117645
x1.vss.n77                         3.38132e-05
x1.vss.n12                         3.38132e-05
x1.vss.n10                         4.01609e-12
x1.vss.n8                          4.01609e-12
x1.vss.n1                          4.01609e-12
x1.vss.n28                         3.38133e-05
x1.vss.n27                         3.38133e-05
x1.vss.n32                         7.93089e-05
x1.vss.n31                           0.0117645
x1.vss.n51                         8.88358e-05
x1.vss.n52                         8.88358e-05
x1.vss.n53                         8.88358e-05
x1.vss.n44                         8.88355e-05
x1.vss.n45                         8.88355e-05
x1.vss.n43                         8.88355e-05
x1.vss.n14                         8.88358e-05
x1.vss.n55                         8.88358e-05
x1.vss.n70                         8.88358e-05
x1.vss.n36                         8.88355e-05
x1.vss.n35                         8.88355e-05
x1.vss.n37                         8.88355e-05
x1.vss.n54                         8.88358e-05
x1.vss.n22                         8.88354e-05
x1.vss.n13                         8.88358e-05
x1.vss.n21                         8.88354e-05
x1.vss.n71                         8.88358e-05
x1.vss.n34                         8.88354e-05
x1.vss.n78                         6.20497e-06
x1.vss.n5                          6.20498e-06
x1.vss.n3                          6.07023e-06
x1.vss.n85                         5.62742e-06
x1.vss.n4                          5.36592e-06
x1.vss.n6                          5.27786e-06
x1.vss.n81                         5.36592e-06
x1.vss.n80                         5.62742e-06
x1.vss.n79                         6.07023e-06
x1.vss.n84                         3.87706e-07
x1.vss.n83                         2.19761e-07
x1.vss.n82                         2.19761e-07
x1.vss.n7                          3.87706e-07
di_p                                   1.79976
x1.di_n.n2                             1.79976
x1.di_n.n1                             1.79976
x1.di_n.n0                             1.79976
x1.di_n.n11                            1.79976
x1.di_n.n9                             1.79976
x1.di_n.n4                             1.79976
x1.di_n.n3                             1.79976
x1.di_n.n6                             1.79976
x1.di_n.n5                             1.79976
x1.di_n.n8                             1.79976
x1.di_n.n7                             1.79976
x1.di_n.n10                            1.79976
x1.di_n.n13                            1.79976
x1.di_n.n12                            1.79976
vout_p                               0.0877549
x1.vout_p.n2                          0.161241
x1.vout_p.n6                         0.0871429
x1.vout_p.n4                         0.0749863
x1.vout_p.n7                         0.0872867
x1.vout_p.n3                         0.0872867
x1.vout_p.n5                         0.0750146
x1.vout_p.n0                         0.0877549
x1.vout_p.n1                         0.0877549
x1.vout_p.n9                         0.0877549
x1.vout_p.n8                         0.0877422
x1.vin_p.n3                           0.950896
x1.vin_p.n5                           0.950896
x1.vin_p.n4                           0.950896
x1.vin_p.n1                           0.950896
x1.vin_p.n0                           0.950896
x1.vin_p.n6                           0.950896
x1.vin_p.n2                           0.950896
net10                                 0.950896
x1.vin_n.n3                           0.900896
x1.vin_n.n5                           0.900896
x1.vin_n.n4                           0.900896
x1.vin_n.n1                           0.900896
x1.vin_n.n0                           0.900896
x1.vin_n.n6                           0.900896
x1.vin_n.n2                           0.900896
vcm                                   0.900896
di_n                                   1.79976
x1.di_p.n4                             1.79976
x1.di_p.n0                             1.79976
x1.di_p.n13                            1.79976
x1.di_p.n3                             1.79976
x1.di_p.n1                             1.79976
x1.di_p.n6                             1.79976
x1.di_p.n5                             1.79976
x1.di_p.n8                             1.79976
x1.di_p.n7                             1.79976
x1.di_p.n10                            1.79976
x1.di_p.n9                             1.79976
x1.di_p.n2                             1.79976
x1.di_p.n12                            1.79976
x1.di_p.n11                            1.79976
x1.vout_n.n4                         0.0877698
x1.vout_n.n0                          0.161242
x1.vout_n.n7                         0.0871432
x1.vout_n.n5                         0.0749866
x1.vout_n.n9                          0.087287
x1.vout_n.n8                          0.087287
x1.vout_n.n6                         0.0750149
x1.vout_n.n1                         0.0877571
x1.vout_n.n2                         0.0877571
vout_n                               0.0877571
x1.vout_n.n3                         0.0877571
x1.clk_bar.n8                                0
x1.clk_bar.n6                                0
x1.clk_bar.n5                                0
x1.clk_bar.n3                                0
x1.clk_bar.n1                                0
x1.clk_bar.n0                                0
x1.clk_bar.n7                                0
x1.clk_bar.n2                                0
x1.clk_bar.n9                                0
x1.clk_bar.n4                                0
vclk_bar                                     0
x1.vdd.n18                             1.79976
x1.vdd.n59                             1.79976
x1.vdd.n20                             1.79976
x1.vdd.n53                             1.79976
x1.vdd.n81                             1.79973
x1.vdd.n105                            1.79973
x1.vdd.n66                             1.79973
x1.vdd.n116                            1.79973
x1.vdd.n103                            1.79973
x1.vdd.n34                             1.78757
x1.vdd.n97                             1.79974
x1.vdd.n96                             1.78758
net1                                   1.79976
x1.vdd.n39                              1.7876
x1.vdd.n90                             1.79974
x1.vdd.n89                             1.78758
x1.vdd.n87                             1.79973
x1.vdd.n44                             1.78757
x1.vdd.n9                              1.79976
x1.vdd.n7                              1.79976
x1.vdd.n117                            1.79973
x1.vdd.n64                             1.79973
x1.vdd.n118                            1.79973
x1.vdd.n70                             1.79973
x1.vdd.n8                              1.79976
x1.vdd.n115                            1.79973
x1.vdd.n114                            1.79973
x1.vdd.n27                             1.79973
x1.vdd.n26                             1.79973
x1.vdd.n68                             1.79973
x1.vdd.n67                             1.79973
x1.vdd.n69                             1.79973
x1.vdd.n65                             1.79973
x1.vdd.n11                             1.79976
x1.vdd.n10                             1.79976
x1.vdd.n3                              1.79976
x1.vdd.n2                              1.79976
x1.vdd.n6                              1.79976
x1.vdd.n5                              1.79976
x1.vdd.n72                             1.79973
x1.vdd.n71                             1.79973
x1.vdd.n120                            1.79973
x1.vdd.n119                            1.79973
x1.vdd.n113                            1.79973
x1.vdd.n112                            1.79973
x1.vdd.n79                             1.79973
x1.vdd.n49                             1.79973
x1.vdd.n4                              1.79976
x1.vdd.n0                              1.79976
x1.vdd.n13                             1.79976
x1.vdd.n12                             1.79976
x1.vdd.n25                             1.79973
x1.vdd.n63                             1.79973
x1.vdd.n1                              1.79976
x1.vdd.n73                             1.79974
x1.vdd.n62                             1.79975
x1.vdd.n122                            1.79975
x1.vdd.n121                            1.79974
x1.vdd.n61                             1.79975
x1.vdd.n60                             1.79975
x1.vdd.n123                            1.79975
x1.vdd.n21                             1.79975
x1.vdd.n30                             1.79974
x1.vdd.n24                             1.79973
x1.vdd.n50                             1.79974
x1.vdd.n48                             1.79973
x1.vdd.n78                             1.79974
x1.vdd.n80                             1.79973
x1.vdd.n47                             1.79974
x1.vdd.n82                             1.79974
x1.vdd.n45                             1.79974
x1.vdd.n43                             1.79973
x1.vdd.n86                             1.79974
x1.vdd.n88                             1.79973
x1.vdd.n42                             1.79974
x1.vdd.n91                             1.79974
x1.vdd.n40                             1.79974
x1.vdd.n38                             1.79975
x1.vdd.n94                             1.79974
x1.vdd.n95                             1.79975
x1.vdd.n37                             1.79974
x1.vdd.n98                             1.79974
x1.vdd.n35                             1.79974
x1.vdd.n33                             1.79973
x1.vdd.n102                            1.79974
x1.vdd.n104                            1.79973
x1.vdd.n32                             1.79974
x1.vdd.n106                            1.79974
x1.vdd.n29                             1.79974
x1.vdd.n28                             1.79973
x1.vdd.n111                            1.79974
x1.vdd.n58                             1.79976
x1.vdd.n57                             1.79975
x1.vdd.n54                             1.79975
x1.vdd.n14                             1.79975
x1.vdd.n131                            1.79975
x1.vdd.n15                             1.79975
x1.vdd.n127                            1.79975
x1.vdd.n126                            1.79975
x1.vdd.n19                             1.79976
x1.vdd.n52                             1.79975
x1.vdd.n51                             1.79975
x1.vdd.n56                             1.79975
x1.vdd.n55                             1.79975
x1.vdd.n16                             1.79975
x1.vdd.n130                            1.79975
x1.vdd.n129                            1.79975
x1.vdd.n128                            1.79975
x1.vdd.n17                             1.79975
x1.vdd.n125                            1.79975
x1.vdd.n124                            1.79975
x1.vdd.n109                            1.79975
x1.vdd.n23                             1.79974
x1.vdd.n22                             1.79975
x1.vdd.n75                             1.79975
x1.vdd.n74                             1.79974
x1.vdd.n76                             1.79975
x1.vdd.n77                             1.79975
x1.vdd.n46                             1.79975
x1.vdd.n83                             1.79975
x1.vdd.n84                             1.79975
x1.vdd.n85                             1.79975
x1.vdd.n41                             1.79975
x1.vdd.n92                             1.79975
x1.vdd.n93                             1.79976
x1.vdd.n36                             1.79976
x1.vdd.n99                             1.79975
x1.vdd.n100                            1.79975
x1.vdd.n101                            1.79975
x1.vdd.n31                             1.79975
x1.vdd.n107                            1.79975
x1.vdd.n108                            1.79975
x1.vdd.n110                            1.79975
net9                              -0.000243837
q_bar                                 0.869664
q                                     0.874409
x2.x1.net1                             1.75899
net17                                      1.8
x2.x2.net1                             1.16331
x3.vss.t36                         4.55177e-12
x3.clk.t0                                    0
x3.a_88_n1613.t11                     0.650589
x3.vss.t35                            8.89e-05
x3.a_88_n1613.t7                      0.650589
x3.clk.t1                                    0
x3.vss.t34                         4.53829e-12
x3.vss.t33                            8.89e-05
x3.a_88_n1613.t12                     0.650589
x3.clk.t2                                    0
x3.vss.t32                         6.57594e-05
x3.vss.t31                         8.88948e-05
x3.vout_p.t3                         0.0724232
x3.di_n.t12                                1.8
x3.vss.t7                           0.00900781
x3.vss.t6                          8.88845e-05
x3.vout_p.t2                         0.0726514
x3.di_n.t13                                1.8
x3.vss.t38                           0.0141514
x3.vss.t37                         8.88919e-05
x3.a_88_n1613.t3                      0.650589
x3.vin_p.t0                           0.840896
x3.di_n.t2                                 1.8
x3.vss.t3                          8.88845e-05
x3.a_88_n1613.t28                     0.650589
x3.vin_n.t0                           0.900896
x3.di_p.t11                                1.8
x3.vss.t20                         8.88986e-05
x3.vout_p.t6                         0.0873106
x3.vout_n.t8                         0.0877812
x3.vss.t49                         1.66788e-05
x3.vss.t48                         8.88996e-05
x3.a_88_n1613.t9                      0.650589
x3.clk.t3                                    0
x3.vss.t30                         3.38255e-05
x3.vss.t29                         8.88987e-05
x3.di_p.t10                                1.8
x3.vin_n.t1                           0.900896
x3.a_88_n1613.t20                     0.650589
x3.vss.t44                         8.88918e-05
x3.vss.t11                         1.66788e-05
x3.vout_p.t8                          0.087779
x3.vout_n.t3                         0.0873109
x3.vss.t10                         8.88996e-05
x3.vdd.t34                             1.78645
x3.clk_bar.t0                                0
x3.latch.inv0.vdd                       1.7067
x3.vdd.t33                             1.79998
x3.a_88_n1613.t5                      0.650589
x3.clk.t4                                    0
x3.vss.t28                         4.53829e-12
x3.vss.t27                         8.88999e-05
x3.vout_p.t9                          0.087779
x3.vout_n.t1                          0.169302
x3.vdd.t1                              1.79998
x3.a_88_n1613.t21                     0.650589
x3.vin_p.t1                           0.840896
x3.di_n.t7                                 1.8
x3.vss.t16                         8.88971e-05
x3.vdd.t32                             1.78647
x3.clk_bar.t1                                0
x3.vdd.t31                             1.79998
x3.vss.t9                            0.0141921
x3.di_n.t14                                1.8
x3.vout_p.t1                         0.0726659
x3.vss.t8                          8.88885e-05
x3.di_p.t9                                 1.8
x3.vin_n.t2                           0.900896
x3.a_88_n1613.t2                      0.650589
x3.vss.t2                          8.88996e-05
x3.clk_bar.t2                                0
x3.vdd.t30                             1.79202
x3.vdd.t29                             1.79998
x3.clk_bar.t3                                0
x3.vdd.t28                             1.78649
x3.vdd.t27                             1.79998
x3.vss.t26                         6.57594e-05
x3.clk.t5                                    0
x3.a_88_n1613.t13                     0.650589
x3.vss.t25                         8.88947e-05
x3.vss.t53                           0.0090237
x3.di_n.t15                                1.8
x3.vout_p.t0                         0.0724948
x3.vss.t52                         8.88948e-05
x3.di_p.t8                                 1.8
x3.vin_n.t3                           0.900896
x3.a_88_n1613.t23                     0.650589
x3.vss.t50                         8.88757e-05
x3.vdd.t11                                 1.8
x3.clk.t6                                    0
x3.di_p.t0                                 1.8
x3.vdd.t10                                 1.8
x3.clk_bar.t4                                0
x3.vdd.t26                             1.78647
x3.vdd.t25                             1.79998
x3.vss.t24                         4.55177e-12
x3.clk.t7                                    0
x3.a_88_n1613.t16                     0.650589
x3.vss.t23                         8.88999e-05
x3.a_88_n1613.t10                     0.650589
x3.clk.t8                                    0
x3.vss.t22                         4.53829e-12
x3.di_n.t9                                 1.8
x3.vin_p.t2                           0.840896
x3.a_88_n1613.t26                     0.650589
x3.vss.t56                         8.88735e-05
x3.di_n.t6                                 1.8
x3.vin_p.t3                           0.840896
x3.a_88_n1613.t18                     0.650589
x3.vss.t21                         3.38257e-05
x3.clk.t9                                    0
x3.a_88_n1613.t14                     0.650589
x3.a_88_n1613.t0                      0.650589
x3.vin_p.t4                           0.840896
x3.di_n.t0                                 1.8
x3.vss.t0                          8.88759e-05
x3.a_88_n1613.t1                      0.650589
x3.vin_p.t5                           0.840896
x3.di_n.t1                                 1.8
x3.vss.t1                          8.88996e-05
x3.a_88_n1613.t31                     0.650589
x3.vin_n.t4                           0.900896
x3.di_p.t7                                 1.8
x3.vss.t58                         8.88883e-05
x3.a_88_n1613.t4                      0.650589
x3.vin_n.t5                           0.900896
x3.di_p.t6                                 1.8
x3.vss.t12                         8.88732e-05
x3.clk_bar.t5                                0
x3.vdd.t24                             1.78648
x3.vdd.t3                              1.79998
x3.a_88_n1613.t8                      0.650589
x3.clk.t10                                   0
x3.vss.t19                         3.38257e-05
x3.vss.t18                          8.8897e-05
x3.di_n.t8                                 1.8
x3.vin_p.t6                           0.840896
x3.a_88_n1613.t24                     0.650589
x3.vss.t51                         8.88885e-05
x3.vss.t54                          1.1589e-07
x3.vout_n.t9                         0.0877812
x3.vout_p.t7                         0.0873106
x3.di_p.t5                                 1.8
x3.vin_n.t6                           0.900896
x3.a_88_n1613.t22                     0.650589
x3.vss.t45                         8.88843e-05
x3.vss.t17                         3.38255e-05
x3.clk.t11                                   0
x3.a_88_n1613.t15                     0.650589
x3.di_p.t1                                 1.8
x3.clk.t12                                   0
x3.vdd.t9                                  1.8
x3.vdd.t8                                  1.8
x3.vdd.t23                               1.792
x3.clk_bar.t6                                0
x3.vdd.t22                             1.79998
x3.a_88_n1613.t17                     0.650589
x3.vin_p.t7                           0.840896
x3.di_n.t5                                 1.8
x3.vss.t41                         8.88919e-05
x3.vout_n.t0                          0.169444
x3.vout_p.t10                         0.087779
x3.vdd.t0                              1.79998
x3.vss.t14                          0.00905284
x3.di_p.t12                                1.8
x3.vout_n.t7                         0.0724689
x3.vss.t13                         8.88843e-05
x3.vdd.t21                             1.78645
x3.clk_bar.t7                                0
x3.vdd.t20                             1.79998
x3.vout_n.t2                         0.0873109
x3.vout_p.t11                         0.087779
x3.vss.t40                          1.1589e-07
x3.vss.t39                         8.88999e-05
x3.clk_bar.t8                                0
x3.vdd.t19                             1.78648
x3.vdd.t18                             1.79998
x3.vout_n.t10                        0.0877812
x3.vout_p.t4                          0.169444
x3.vout_n.t6                         0.0724496
x3.di_p.t13                                1.8
x3.vss.t5                            0.0089787
x3.vss.t4                          8.88947e-05
x3.vout_n.t5                         0.0726244
x3.di_p.t14                                1.8
x3.vss.t43                           0.0141504
x3.vss.t42                         8.88883e-05
x3.di_n.t4                                 1.8
x3.clk.t13                                   0
x3.vdd.t7                                  1.8
x3.vdd.t6                                  1.8
x3.vdd.t17                             1.78644
x3.clk_bar.t9                                0
x3.vdd.t16                             1.79998
x3.vdd.t5                                  1.8
x3.clk.t14                                   0
x3.di_n.t3                                 1.8
x3.vdd.t4                                  1.8
x3.clk_bar.t10                               0
x3.vdd.t15                             1.78647
x3.vdd.t14                             1.79998
x3.di_p.t4                                 1.8
x3.vin_n.t7                           0.900896
x3.a_88_n1613.t29                     0.650589
x3.vdd.t13                             1.78644
x3.clk_bar.t11                               0
x3.vdd.t12                             1.79998
x3.di_n.t11                                1.8
x3.vin_p.t8                           0.840896
x3.a_88_n1613.t30                     0.650589
x3.a_88_n1613.t19                     0.650589
x3.vin_n.t8                           0.900896
x3.di_p.t3                                 1.8
x3.vout_p.t5                          0.169301
x3.vout_n.t11                        0.0877812
x3.vdd.t2                              1.79998
x3.vss.t47                           0.0141931
x3.di_p.t15                                1.8
x3.vout_n.t4                         0.0726935
x3.vss.t46                         8.88918e-05
x3.vss.t15                         4.55177e-12
x3.clk.t15                                   0
x3.a_88_n1613.t6                      0.650589
x3.di_n.t10                                1.8
x3.vin_p.t9                           0.840896
x3.a_88_n1613.t27                     0.650589
x3.vss.t57                           8.888e-05
x3.a_88_n1613.t25                     0.650589
x3.vin_n.t9                           0.900896
x3.di_p.t2                                 1.8
x3.vss.t55                         8.88798e-05
x3.clk.n6                                    0
x3.clk.n5                                    0
x3.clk.n11                                   0
x3.clk.n9                                    0
x3.clk.n8                                    0
x3.clk.n3                                    0
x3.clk.n1                                    0
x3.clk.n0                                    0
x3.clk.n7                                    0
x3.clk.n10                                   0
x3.clk.n2                                    0
x3.clk.n12                                   0
x3.clk.n4                                    0
net15                                        0
x3.a_88_n1613.n1                      0.650589
x3.a_88_n1613.n16                     0.650589
x3.a_88_n1613.n15                     0.650589
x3.a_88_n1613.n14                     0.650589
x3.a_88_n1613.n13                     0.650589
x3.a_88_n1613.n0                      0.650589
x3.a_88_n1613.n12                     0.650589
x3.a_88_n1613.n11                     0.650589
x3.a_88_n1613.n3                      0.650589
x3.a_88_n1613.n2                      0.650589
x3.a_88_n1613.n8                      0.650589
x3.a_88_n1613.n9                      0.650589
x3.a_88_n1613.n7                      0.650589
x3.a_88_n1613.n5                      0.650589
x3.a_88_n1613.n4                      0.650589
x3.a_88_n1613.n10                     0.650589
x3.a_88_n1613.n6                      0.650589
x3.a_88_n1613.n18                     0.650589
x3.a_88_n1613.n17                     0.650589
x3.vss.n66                         8.88769e-05
x3.vss.n17                         8.88766e-05
x3.vss.n65                         8.88753e-05
x3.vss.n49                          8.8875e-05
x3.vss.n60                         8.88682e-05
x3.vss.n59                         8.88707e-05
x3.vss.n42                         8.88679e-05
x3.vss.n41                         8.88704e-05
x3.vss.n57                         8.88711e-05
x3.vss.n56                         8.88682e-05
x3.vss.n58                         8.88726e-05
x3.vss.n16                         8.88714e-05
x3.vss.n15                         8.88682e-05
x3.vss.n64                         8.88742e-05
x3.vss.n69                         8.88682e-05
x3.vss.n68                         8.88719e-05
x3.vss.n67                         8.88775e-05
x3.vss.n47                         8.88705e-05
x3.vss.n46                         8.88679e-05
x3.vss.n48                         8.88739e-05
x3.vss.n20                         8.88679e-05
x3.vss.n19                         8.88702e-05
x3.vss.n63                         8.88708e-05
x3.vss.n62                         8.88682e-05
x3.vss.n61                         8.88682e-05
x3.vss.n50                         8.88705e-05
x3.vss.n26                         8.88679e-05
x3.vss.n25                         8.88717e-05
x3.vss.n24                         8.88772e-05
x3.vss.n23                         8.88679e-05
x3.vss.n18                         8.88711e-05
x3.vss.n39                         8.88708e-05
x3.vss.n38                         8.88679e-05
x3.vss.n40                         8.88723e-05
x3.vss.n76                         5.21809e-05
x3.vss.n11                         1.66787e-05
x3.vss.n0                          1.66788e-05
x3.vss.n30                         6.57594e-05
x3.vss.n33                         8.88678e-05
x3.vss.n72                         8.88681e-05
x3.vss.n75                         6.57594e-05
x3.vss.n9                          1.15881e-07
x3.vss.n2                          1.15881e-07
x3.vss.n29                         5.21811e-05
x3.vss.n74                         7.93378e-05
x3.vss.n73                           0.0117687
x3.vss.n77                         3.38255e-05
x3.vss.n12                         3.38255e-05
x3.vss.n10                         3.77003e-12
x3.vss.n8                          3.77003e-12
x3.vss.n1                          3.77003e-12
x3.vss.n28                         3.38256e-05
x3.vss.n27                         3.38256e-05
x3.vss.n32                         7.93378e-05
x3.vss.n31                           0.0117688
x3.vss.n51                         8.88682e-05
x3.vss.n52                         8.88682e-05
x3.vss.n53                         8.88682e-05
x3.vss.n44                         8.88678e-05
x3.vss.n45                         8.88678e-05
x3.vss.n43                         8.88678e-05
x3.vss.n14                         8.88682e-05
x3.vss.n55                         8.88682e-05
x3.vss.n70                         8.88682e-05
x3.vss.n36                         8.88679e-05
x3.vss.n35                         8.88679e-05
x3.vss.n37                         8.88679e-05
x3.vss.n54                         8.88681e-05
x3.vss.n22                         8.88678e-05
x3.vss.n13                         8.88681e-05
x3.vss.n21                         8.88678e-05
x3.vss.n71                         8.88681e-05
x3.vss.n34                         8.88678e-05
x3.vss.n78                         6.20723e-06
x3.vss.n5                          6.20724e-06
x3.vss.n3                          6.07244e-06
x3.vss.n85                         5.62947e-06
x3.vss.n4                          5.36787e-06
x3.vss.n6                          5.27979e-06
x3.vss.n81                         5.36787e-06
x3.vss.n80                         5.62947e-06
x3.vss.n79                         6.07244e-06
x3.vss.n84                         3.87848e-07
x3.vss.n83                         2.19841e-07
x3.vss.n82                         2.19841e-07
x3.vss.n7                          3.87847e-07
di_p_mc                                    1.8
x3.di_n.n2                                 1.8
x3.di_n.n1                                 1.8
x3.di_n.n0                                 1.8
x3.di_n.n11                                1.8
x3.di_n.n9                                 1.8
x3.di_n.n4                                 1.8
x3.di_n.n3                                 1.8
x3.di_n.n6                                 1.8
x3.di_n.n5                                 1.8
x3.di_n.n8                                 1.8
x3.di_n.n7                                 1.8
x3.di_n.n10                                1.8
x3.di_n.n13                                1.8
x3.di_n.n12                                1.8
vout_p_mc                             0.087779
x3.vout_p.n2                          0.161292
x3.vout_p.n6                         0.0871667
x3.vout_p.n4                         0.0750057
x3.vout_p.n7                         0.0873106
x3.vout_p.n3                         0.0873106
x3.vout_p.n5                          0.075034
x3.vout_p.n0                          0.087779
x3.vout_p.n1                          0.087779
x3.vout_p.n9                          0.087779
x3.vout_p.n8                         0.0877663
x3.vin_p.n3                           0.840896
x3.vin_p.n5                           0.840896
x3.vin_p.n4                           0.840896
x3.vin_p.n1                           0.840896
x3.vin_p.n0                           0.840896
x3.vin_p.n6                           0.840896
x3.vin_p.n2                           0.840896
vsc                                   0.840896
x3.vin_n.n3                           0.900896
x3.vin_n.n5                           0.900896
x3.vin_n.n4                           0.900896
x3.vin_n.n1                           0.900896
x3.vin_n.n0                           0.900896
x3.vin_n.n6                           0.900896
x3.vin_n.n2                           0.900896
net2                                  0.900896
di_n_mc                                    1.8
x3.di_p.n4                                 1.8
x3.di_p.n0                                 1.8
x3.di_p.n13                                1.8
x3.di_p.n3                                 1.8
x3.di_p.n1                                 1.8
x3.di_p.n6                                 1.8
x3.di_p.n5                                 1.8
x3.di_p.n8                                 1.8
x3.di_p.n7                                 1.8
x3.di_p.n10                                1.8
x3.di_p.n9                                 1.8
x3.di_p.n2                                 1.8
x3.di_p.n12                                1.8
x3.di_p.n11                                1.8
x3.vout_n.n4                         0.0877939
x3.vout_n.n0                          0.161293
x3.vout_n.n7                         0.0871671
x3.vout_n.n5                          0.075006
x3.vout_n.n9                         0.0873109
x3.vout_n.n8                         0.0873109
x3.vout_n.n6                         0.0750343
x3.vout_n.n1                         0.0877812
x3.vout_n.n2                         0.0877812
vout_n_mc                            0.0877812
x3.vout_n.n3                         0.0877812
x3.clk_bar.n8                                0
x3.clk_bar.n6                                0
x3.clk_bar.n5                                0
x3.clk_bar.n3                                0
x3.clk_bar.n1                                0
x3.clk_bar.n0                                0
x3.clk_bar.n7                                0
x3.clk_bar.n2                                0
x3.clk_bar.n9                                0
x3.clk_bar.n4                                0
net3                                         0
x3.vdd.n18                                 1.8
x3.vdd.n59                                 1.8
x3.vdd.n20                                 1.8
x3.vdd.n53                                 1.8
x3.vdd.n81                             1.79997
x3.vdd.n105                            1.79997
x3.vdd.n66                             1.79998
x3.vdd.n116                            1.79998
x3.vdd.n103                            1.79997
x3.vdd.n34                             1.78781
x3.vdd.n97                             1.79998
x3.vdd.n96                             1.78782
net4                                       1.8
x3.vdd.n39                             1.78784
x3.vdd.n90                             1.79998
x3.vdd.n89                             1.78782
x3.vdd.n87                             1.79997
x3.vdd.n44                             1.78781
x3.vdd.n9                                  1.8
x3.vdd.n7                                  1.8
x3.vdd.n117                            1.79998
x3.vdd.n64                             1.79998
x3.vdd.n118                            1.79998
x3.vdd.n70                             1.79998
x3.vdd.n8                                  1.8
x3.vdd.n115                            1.79998
x3.vdd.n114                            1.79998
x3.vdd.n27                             1.79998
x3.vdd.n26                             1.79998
x3.vdd.n68                             1.79998
x3.vdd.n67                             1.79998
x3.vdd.n69                             1.79998
x3.vdd.n65                             1.79998
x3.vdd.n11                                 1.8
x3.vdd.n10                                 1.8
x3.vdd.n3                                  1.8
x3.vdd.n2                                  1.8
x3.vdd.n6                                  1.8
x3.vdd.n5                                  1.8
x3.vdd.n72                             1.79998
x3.vdd.n71                             1.79998
x3.vdd.n120                            1.79998
x3.vdd.n119                            1.79998
x3.vdd.n113                            1.79998
x3.vdd.n112                            1.79997
x3.vdd.n79                             1.79997
x3.vdd.n49                             1.79998
x3.vdd.n4                                  1.8
x3.vdd.n0                                  1.8
x3.vdd.n13                                 1.8
x3.vdd.n12                                 1.8
x3.vdd.n25                             1.79998
x3.vdd.n63                             1.79998
x3.vdd.n1                                  1.8
x3.vdd.n73                             1.79999
x3.vdd.n62                             1.79999
x3.vdd.n122                            1.79999
x3.vdd.n121                            1.79999
x3.vdd.n61                                 1.8
x3.vdd.n60                                 1.8
x3.vdd.n123                                1.8
x3.vdd.n21                                 1.8
x3.vdd.n30                             1.79999
x3.vdd.n24                             1.79998
x3.vdd.n50                             1.79999
x3.vdd.n48                             1.79998
x3.vdd.n78                             1.79999
x3.vdd.n80                             1.79997
x3.vdd.n47                             1.79999
x3.vdd.n82                             1.79999
x3.vdd.n45                             1.79999
x3.vdd.n43                             1.79997
x3.vdd.n86                             1.79999
x3.vdd.n88                             1.79998
x3.vdd.n42                             1.79999
x3.vdd.n91                             1.79999
x3.vdd.n40                             1.79999
x3.vdd.n38                             1.79999
x3.vdd.n94                             1.79999
x3.vdd.n95                             1.79999
x3.vdd.n37                             1.79999
x3.vdd.n98                             1.79999
x3.vdd.n35                             1.79999
x3.vdd.n33                             1.79998
x3.vdd.n102                            1.79999
x3.vdd.n104                            1.79997
x3.vdd.n32                             1.79999
x3.vdd.n106                            1.79999
x3.vdd.n29                             1.79999
x3.vdd.n28                             1.79997
x3.vdd.n111                            1.79999
x3.vdd.n58                                 1.8
x3.vdd.n57                                 1.8
x3.vdd.n54                                 1.8
x3.vdd.n14                                 1.8
x3.vdd.n131                                1.8
x3.vdd.n15                                 1.8
x3.vdd.n127                                1.8
x3.vdd.n126                                1.8
x3.vdd.n19                                 1.8
x3.vdd.n52                                 1.8
x3.vdd.n51                                 1.8
x3.vdd.n56                                 1.8
x3.vdd.n55                                 1.8
x3.vdd.n16                                 1.8
x3.vdd.n130                                1.8
x3.vdd.n129                                1.8
x3.vdd.n128                                1.8
x3.vdd.n17                                 1.8
x3.vdd.n125                                1.8
x3.vdd.n124                                1.8
x3.vdd.n109                            1.79999
x3.vdd.n23                             1.79999
x3.vdd.n22                             1.79999
x3.vdd.n75                             1.79999
x3.vdd.n74                             1.79999
x3.vdd.n76                             1.79999
x3.vdd.n77                             1.79999
x3.vdd.n46                                 1.8
x3.vdd.n83                                 1.8
x3.vdd.n84                                 1.8
x3.vdd.n85                                 1.8
x3.vdd.n41                                 1.8
x3.vdd.n92                                 1.8
x3.vdd.n93                                 1.8
x3.vdd.n36                                 1.8
x3.vdd.n99                                 1.8
x3.vdd.n100                                1.8
x3.vdd.n101                                1.8
x3.vdd.n31                                 1.8
x3.vdd.n107                                1.8
x3.vdd.n108                                1.8
x3.vdd.n110                            1.79999
x4.vss.t36                          4.6564e-12
x4.clk.t0                                    0
x4.a_88_n1613.t11                     0.665575
x4.vss.t35                         8.89003e-05
x4.a_88_n1613.t7                      0.665575
x4.clk.t1                                    0
x4.vss.t34                         4.64261e-12
x4.vss.t33                         8.89003e-05
x4.a_88_n1613.t12                     0.665575
x4.clk.t2                                    0
x4.vss.t32                         6.57594e-05
x4.vss.t31                         8.88951e-05
x4.vout_p.t3                         0.0724232
x4.di_n.t12                                1.8
x4.vss.t7                           0.00900781
x4.vss.t6                          8.88846e-05
x4.vout_p.t2                         0.0726514
x4.di_n.t13                                1.8
x4.vss.t38                           0.0141514
x4.vss.t37                         8.88921e-05
x4.a_88_n1613.t3                      0.665575
x4.vin_p.t0                           0.900996
x4.di_n.t2                                 1.8
x4.vss.t3                          8.88846e-05
x4.a_88_n1613.t28                     0.665575
x4.vin_n.t0                           0.900896
x4.di_p.t11                                1.8
x4.vss.t20                         8.88989e-05
x4.vout_p.t6                         0.0873106
x4.vout_n.t8                         0.0877812
x4.vss.t49                         1.66788e-05
x4.vss.t48                         8.88999e-05
x4.a_88_n1613.t9                      0.665575
x4.clk.t3                                    0
x4.vss.t30                         3.38255e-05
x4.vss.t29                          8.8899e-05
x4.di_p.t10                                1.8
x4.vin_n.t1                           0.900896
x4.a_88_n1613.t20                     0.665575
x4.vss.t44                          8.8892e-05
x4.vss.t11                         1.66788e-05
x4.vout_p.t8                          0.087779
x4.vout_n.t3                         0.0873109
x4.vss.t10                         8.88999e-05
x4.vdd.t34                             1.78645
x4.clk_bar.t0                                0
x4.latch.inv0.vdd                       1.7067
x4.vdd.t33                             1.79998
x4.a_88_n1613.t5                      0.665575
x4.clk.t4                                    0
x4.vss.t28                         4.64261e-12
x4.vss.t27                         8.89002e-05
x4.vout_p.t9                          0.087779
x4.vout_n.t1                          0.169302
x4.vdd.t1                              1.79998
x4.a_88_n1613.t21                     0.665575
x4.vin_p.t1                           0.900996
x4.di_n.t7                                 1.8
x4.vss.t16                         8.88973e-05
x4.vdd.t32                             1.78647
x4.clk_bar.t1                                0
x4.vdd.t31                             1.79998
x4.vss.t9                            0.0141921
x4.di_n.t14                                1.8
x4.vout_p.t1                         0.0726659
x4.vss.t8                          8.88886e-05
x4.di_p.t9                                 1.8
x4.vin_n.t2                           0.900896
x4.a_88_n1613.t2                      0.665575
x4.vss.t2                          8.88999e-05
x4.clk_bar.t2                                0
x4.vdd.t30                             1.79202
x4.vdd.t29                             1.79998
x4.clk_bar.t3                                0
x4.vdd.t28                             1.78649
x4.vdd.t27                             1.79998
x4.vss.t26                         6.57594e-05
x4.clk.t5                                    0
x4.a_88_n1613.t13                     0.665575
x4.vss.t25                          8.8895e-05
x4.vss.t53                           0.0090237
x4.di_n.t15                                1.8
x4.vout_p.t0                         0.0724948
x4.vss.t52                         8.88951e-05
x4.di_p.t8                                 1.8
x4.vin_n.t3                           0.900896
x4.a_88_n1613.t23                     0.665575
x4.vss.t50                         8.88758e-05
x4.vdd.t11                                 1.8
x4.clk.t6                                    0
x4.di_p.t0                                 1.8
x4.vdd.t10                                 1.8
x4.clk_bar.t4                                0
x4.vdd.t26                             1.78647
x4.vdd.t25                             1.79998
x4.vss.t24                          4.6564e-12
x4.clk.t7                                    0
x4.a_88_n1613.t16                     0.665575
x4.vss.t23                         8.89002e-05
x4.a_88_n1613.t10                     0.665575
x4.clk.t8                                    0
x4.vss.t22                         4.64261e-12
x4.di_n.t9                                 1.8
x4.vin_p.t2                           0.900996
x4.a_88_n1613.t26                     0.665575
x4.vss.t56                         8.88736e-05
x4.di_n.t6                                 1.8
x4.vin_p.t3                           0.900996
x4.a_88_n1613.t18                     0.665575
x4.vss.t21                         3.38257e-05
x4.clk.t9                                    0
x4.a_88_n1613.t14                     0.665575
x4.a_88_n1613.t0                      0.665575
x4.vin_p.t4                           0.900996
x4.di_n.t0                                 1.8
x4.vss.t0                           8.8876e-05
x4.a_88_n1613.t1                      0.665575
x4.vin_p.t5                           0.900996
x4.di_n.t1                                 1.8
x4.vss.t1                          8.88999e-05
x4.a_88_n1613.t31                     0.665575
x4.vin_n.t4                           0.900896
x4.di_p.t7                                 1.8
x4.vss.t58                         8.88885e-05
x4.a_88_n1613.t4                      0.665575
x4.vin_n.t5                           0.900896
x4.di_p.t6                                 1.8
x4.vss.t12                         8.88733e-05
x4.clk_bar.t5                                0
x4.vdd.t24                             1.78648
x4.vdd.t3                              1.79998
x4.a_88_n1613.t8                      0.665575
x4.clk.t10                                   0
x4.vss.t19                         3.38257e-05
x4.vss.t18                         8.88972e-05
x4.di_n.t8                                 1.8
x4.vin_p.t6                           0.900996
x4.a_88_n1613.t24                     0.665575
x4.vss.t51                         8.88887e-05
x4.vss.t54                          1.1589e-07
x4.vout_n.t9                         0.0877812
x4.vout_p.t7                         0.0873106
x4.di_p.t5                                 1.8
x4.vin_n.t6                           0.900896
x4.a_88_n1613.t22                     0.665575
x4.vss.t45                         8.88844e-05
x4.vss.t17                         3.38255e-05
x4.clk.t11                                   0
x4.a_88_n1613.t15                     0.665575
x4.di_p.t1                                 1.8
x4.clk.t12                                   0
x4.vdd.t9                                  1.8
x4.vdd.t8                                  1.8
x4.vdd.t23                               1.792
x4.clk_bar.t6                                0
x4.vdd.t22                             1.79998
x4.a_88_n1613.t17                     0.665575
x4.vin_p.t7                           0.900996
x4.di_n.t5                                 1.8
x4.vss.t41                         8.88921e-05
x4.vout_n.t0                          0.169444
x4.vout_p.t10                         0.087779
x4.vdd.t0                              1.79998
x4.vss.t14                          0.00905284
x4.di_p.t12                                1.8
x4.vout_n.t7                         0.0724689
x4.vss.t13                         8.88844e-05
x4.vdd.t21                             1.78645
x4.clk_bar.t7                                0
x4.vdd.t20                             1.79998
x4.vout_n.t2                         0.0873109
x4.vout_p.t11                         0.087779
x4.vss.t40                          1.1589e-07
x4.vss.t39                         8.89002e-05
x4.clk_bar.t8                                0
x4.vdd.t19                             1.78648
x4.vdd.t18                             1.79998
x4.vout_n.t10                        0.0877812
x4.vout_p.t4                          0.169444
x4.vout_n.t6                         0.0724496
x4.di_p.t13                                1.8
x4.vss.t5                            0.0089787
x4.vss.t4                          8.88949e-05
x4.vout_n.t5                         0.0726244
x4.di_p.t14                                1.8
x4.vss.t43                           0.0141504
x4.vss.t42                         8.88885e-05
x4.di_n.t4                                 1.8
x4.clk.t13                                   0
x4.vdd.t7                                  1.8
x4.vdd.t6                                  1.8
x4.vdd.t17                             1.78644
x4.clk_bar.t9                                0
x4.vdd.t16                             1.79998
x4.vdd.t5                                  1.8
x4.clk.t14                                   0
x4.di_n.t3                                 1.8
x4.vdd.t4                                  1.8
x4.clk_bar.t10                               0
x4.vdd.t15                             1.78647
x4.vdd.t14                             1.79998
x4.di_p.t4                                 1.8
x4.vin_n.t7                           0.900896
x4.a_88_n1613.t29                     0.665575
x4.vdd.t13                             1.78644
x4.clk_bar.t11                               0
x4.vdd.t12                             1.79998
x4.di_n.t11                                1.8
x4.vin_p.t8                           0.900996
x4.a_88_n1613.t30                     0.665575
x4.a_88_n1613.t19                     0.665575
x4.vin_n.t8                           0.900896
x4.di_p.t3                                 1.8
x4.vout_p.t5                          0.169301
x4.vout_n.t11                        0.0877812
x4.vdd.t2                              1.79998
x4.vss.t47                           0.0141931
x4.di_p.t15                                1.8
x4.vout_n.t4                         0.0726935
x4.vss.t46                          8.8892e-05
x4.vss.t15                          4.6564e-12
x4.clk.t15                                   0
x4.a_88_n1613.t6                      0.665575
x4.di_n.t10                                1.8
x4.vin_p.t9                           0.900996
x4.a_88_n1613.t27                     0.665575
x4.vss.t57                         8.88801e-05
x4.a_88_n1613.t25                     0.665575
x4.vin_n.t9                           0.900896
x4.di_p.t2                                 1.8
x4.vss.t55                         8.88799e-05
x4.clk.n6                                    0
x4.clk.n5                                    0
x4.clk.n11                                   0
x4.clk.n9                                    0
x4.clk.n8                                    0
x4.clk.n3                                    0
x4.clk.n1                                    0
x4.clk.n0                                    0
x4.clk.n7                                    0
x4.clk.n10                                   0
x4.clk.n2                                    0
x4.clk.n12                                   0
x4.clk.n4                                    0
net16                                        0
x4.a_88_n1613.n1                      0.665575
x4.a_88_n1613.n16                     0.665575
x4.a_88_n1613.n15                     0.665575
x4.a_88_n1613.n14                     0.665575
x4.a_88_n1613.n13                     0.665575
x4.a_88_n1613.n0                      0.665575
x4.a_88_n1613.n12                     0.665575
x4.a_88_n1613.n11                     0.665575
x4.a_88_n1613.n3                      0.665575
x4.a_88_n1613.n2                      0.665575
x4.a_88_n1613.n8                      0.665575
x4.a_88_n1613.n9                      0.665575
x4.a_88_n1613.n7                      0.665575
x4.a_88_n1613.n5                      0.665575
x4.a_88_n1613.n4                      0.665575
x4.a_88_n1613.n10                     0.665575
x4.a_88_n1613.n6                      0.665575
x4.a_88_n1613.n18                     0.665575
x4.a_88_n1613.n17                     0.665575
x4.vss.n66                          8.8877e-05
x4.vss.n17                         8.88767e-05
x4.vss.n65                         8.88753e-05
x4.vss.n49                         8.88751e-05
x4.vss.n60                         8.88682e-05
x4.vss.n59                         8.88707e-05
x4.vss.n42                         8.88679e-05
x4.vss.n41                         8.88704e-05
x4.vss.n57                         8.88711e-05
x4.vss.n56                         8.88682e-05
x4.vss.n58                         8.88726e-05
x4.vss.n16                         8.88715e-05
x4.vss.n15                         8.88682e-05
x4.vss.n64                         8.88742e-05
x4.vss.n69                         8.88682e-05
x4.vss.n68                          8.8872e-05
x4.vss.n67                         8.88776e-05
x4.vss.n47                         8.88705e-05
x4.vss.n46                         8.88679e-05
x4.vss.n48                          8.8874e-05
x4.vss.n20                         8.88679e-05
x4.vss.n19                         8.88702e-05
x4.vss.n63                         8.88708e-05
x4.vss.n62                         8.88682e-05
x4.vss.n61                         8.88682e-05
x4.vss.n50                         8.88706e-05
x4.vss.n26                         8.88679e-05
x4.vss.n25                         8.88717e-05
x4.vss.n24                         8.88773e-05
x4.vss.n23                         8.88679e-05
x4.vss.n18                         8.88712e-05
x4.vss.n39                         8.88708e-05
x4.vss.n38                         8.88679e-05
x4.vss.n40                         8.88723e-05
x4.vss.n76                         5.21809e-05
x4.vss.n11                         1.66787e-05
x4.vss.n0                          1.66788e-05
x4.vss.n30                         6.57594e-05
x4.vss.n33                         8.88678e-05
x4.vss.n72                         8.88681e-05
x4.vss.n75                         6.57594e-05
x4.vss.n9                          1.15881e-07
x4.vss.n2                          1.15881e-07
x4.vss.n29                         5.21811e-05
x4.vss.n74                         7.93378e-05
x4.vss.n73                           0.0117687
x4.vss.n77                         3.38255e-05
x4.vss.n12                         3.38255e-05
x4.vss.n10                         3.85669e-12
x4.vss.n8                          3.85669e-12
x4.vss.n1                          3.85669e-12
x4.vss.n28                         3.38256e-05
x4.vss.n27                         3.38256e-05
x4.vss.n32                         7.93378e-05
x4.vss.n31                           0.0117688
x4.vss.n51                         8.88682e-05
x4.vss.n52                         8.88682e-05
x4.vss.n53                         8.88682e-05
x4.vss.n44                         8.88678e-05
x4.vss.n45                         8.88678e-05
x4.vss.n43                         8.88678e-05
x4.vss.n14                         8.88682e-05
x4.vss.n55                         8.88682e-05
x4.vss.n70                         8.88682e-05
x4.vss.n36                         8.88679e-05
x4.vss.n35                         8.88679e-05
x4.vss.n37                         8.88679e-05
x4.vss.n54                         8.88681e-05
x4.vss.n22                         8.88678e-05
x4.vss.n13                         8.88681e-05
x4.vss.n21                         8.88678e-05
x4.vss.n71                         8.88681e-05
x4.vss.n34                         8.88678e-05
x4.vss.n78                         6.20723e-06
x4.vss.n5                          6.20724e-06
x4.vss.n3                          6.07244e-06
x4.vss.n85                         5.62947e-06
x4.vss.n4                          5.36787e-06
x4.vss.n6                          5.27979e-06
x4.vss.n81                         5.36787e-06
x4.vss.n80                         5.62947e-06
x4.vss.n79                         6.07244e-06
x4.vss.n84                         3.87848e-07
x4.vss.n83                         2.19841e-07
x4.vss.n82                         2.19841e-07
x4.vss.n7                          3.87847e-07
di_p_ms                                    1.8
x4.di_n.n2                                 1.8
x4.di_n.n1                                 1.8
x4.di_n.n0                                 1.8
x4.di_n.n11                                1.8
x4.di_n.n9                                 1.8
x4.di_n.n4                                 1.8
x4.di_n.n3                                 1.8
x4.di_n.n6                                 1.8
x4.di_n.n5                                 1.8
x4.di_n.n8                                 1.8
x4.di_n.n7                                 1.8
x4.di_n.n10                                1.8
x4.di_n.n13                                1.8
x4.di_n.n12                                1.8
vout_p_ms                             0.087779
x4.vout_p.n2                          0.161292
x4.vout_p.n6                         0.0871667
x4.vout_p.n4                         0.0750057
x4.vout_p.n7                         0.0873106
x4.vout_p.n3                         0.0873106
x4.vout_p.n5                          0.075034
x4.vout_p.n0                          0.087779
x4.vout_p.n1                          0.087779
x4.vout_p.n9                          0.087779
x4.vout_p.n8                         0.0877663
x4.vin_p.n3                           0.900996
x4.vin_p.n5                           0.900996
x4.vin_p.n4                           0.900996
x4.vin_p.n1                           0.900996
x4.vin_p.n0                           0.900996
x4.vin_p.n6                           0.900996
x4.vin_p.n2                           0.900996
net6                                  0.900996
x4.vin_n.n3                           0.900896
x4.vin_n.n5                           0.900896
x4.vin_n.n4                           0.900896
x4.vin_n.n1                           0.900896
x4.vin_n.n0                           0.900896
x4.vin_n.n6                           0.900896
x4.vin_n.n2                           0.900896
net5                                  0.900896
di_n_ms                                    1.8
x4.di_p.n4                                 1.8
x4.di_p.n0                                 1.8
x4.di_p.n13                                1.8
x4.di_p.n3                                 1.8
x4.di_p.n1                                 1.8
x4.di_p.n6                                 1.8
x4.di_p.n5                                 1.8
x4.di_p.n8                                 1.8
x4.di_p.n7                                 1.8
x4.di_p.n10                                1.8
x4.di_p.n9                                 1.8
x4.di_p.n2                                 1.8
x4.di_p.n12                                1.8
x4.di_p.n11                                1.8
x4.vout_n.n4                         0.0877939
x4.vout_n.n0                          0.161293
x4.vout_n.n7                         0.0871671
x4.vout_n.n5                          0.075006
x4.vout_n.n9                         0.0873109
x4.vout_n.n8                         0.0873109
x4.vout_n.n6                         0.0750343
x4.vout_n.n1                         0.0877812
x4.vout_n.n2                         0.0877812
vout_n_ms                            0.0877812
x4.vout_n.n3                         0.0877812
x4.clk_bar.n8                                0
x4.clk_bar.n6                                0
x4.clk_bar.n5                                0
x4.clk_bar.n3                                0
x4.clk_bar.n1                                0
x4.clk_bar.n0                                0
x4.clk_bar.n7                                0
x4.clk_bar.n2                                0
x4.clk_bar.n9                                0
x4.clk_bar.n4                                0
net7                                         0
x4.vdd.n18                                 1.8
x4.vdd.n59                                 1.8
x4.vdd.n20                                 1.8
x4.vdd.n53                                 1.8
x4.vdd.n81                             1.79997
x4.vdd.n105                            1.79997
x4.vdd.n66                             1.79998
x4.vdd.n116                            1.79998
x4.vdd.n103                            1.79997
x4.vdd.n34                             1.78781
x4.vdd.n97                             1.79998
x4.vdd.n96                             1.78782
net8                                       1.8
x4.vdd.n39                             1.78784
x4.vdd.n90                             1.79998
x4.vdd.n89                             1.78782
x4.vdd.n87                             1.79997
x4.vdd.n44                             1.78781
x4.vdd.n9                                  1.8
x4.vdd.n7                                  1.8
x4.vdd.n117                            1.79998
x4.vdd.n64                             1.79998
x4.vdd.n118                            1.79998
x4.vdd.n70                             1.79998
x4.vdd.n8                                  1.8
x4.vdd.n115                            1.79998
x4.vdd.n114                            1.79998
x4.vdd.n27                             1.79998
x4.vdd.n26                             1.79998
x4.vdd.n68                             1.79998
x4.vdd.n67                             1.79998
x4.vdd.n69                             1.79998
x4.vdd.n65                             1.79998
x4.vdd.n11                                 1.8
x4.vdd.n10                                 1.8
x4.vdd.n3                                  1.8
x4.vdd.n2                                  1.8
x4.vdd.n6                                  1.8
x4.vdd.n5                                  1.8
x4.vdd.n72                             1.79998
x4.vdd.n71                             1.79998
x4.vdd.n120                            1.79998
x4.vdd.n119                            1.79998
x4.vdd.n113                            1.79998
x4.vdd.n112                            1.79997
x4.vdd.n79                             1.79997
x4.vdd.n49                             1.79998
x4.vdd.n4                                  1.8
x4.vdd.n0                                  1.8
x4.vdd.n13                                 1.8
x4.vdd.n12                                 1.8
x4.vdd.n25                             1.79998
x4.vdd.n63                             1.79998
x4.vdd.n1                                  1.8
x4.vdd.n73                             1.79999
x4.vdd.n62                             1.79999
x4.vdd.n122                            1.79999
x4.vdd.n121                            1.79999
x4.vdd.n61                                 1.8
x4.vdd.n60                                 1.8
x4.vdd.n123                                1.8
x4.vdd.n21                                 1.8
x4.vdd.n30                             1.79999
x4.vdd.n24                             1.79998
x4.vdd.n50                             1.79999
x4.vdd.n48                             1.79998
x4.vdd.n78                             1.79999
x4.vdd.n80                             1.79997
x4.vdd.n47                             1.79999
x4.vdd.n82                             1.79999
x4.vdd.n45                             1.79999
x4.vdd.n43                             1.79997
x4.vdd.n86                             1.79999
x4.vdd.n88                             1.79998
x4.vdd.n42                             1.79999
x4.vdd.n91                             1.79999
x4.vdd.n40                             1.79999
x4.vdd.n38                             1.79999
x4.vdd.n94                             1.79999
x4.vdd.n95                             1.79999
x4.vdd.n37                             1.79999
x4.vdd.n98                             1.79999
x4.vdd.n35                             1.79999
x4.vdd.n33                             1.79998
x4.vdd.n102                            1.79999
x4.vdd.n104                            1.79997
x4.vdd.n32                             1.79999
x4.vdd.n106                            1.79999
x4.vdd.n29                             1.79999
x4.vdd.n28                             1.79997
x4.vdd.n111                            1.79999
x4.vdd.n58                                 1.8
x4.vdd.n57                                 1.8
x4.vdd.n54                                 1.8
x4.vdd.n14                                 1.8
x4.vdd.n131                                1.8
x4.vdd.n15                                 1.8
x4.vdd.n127                                1.8
x4.vdd.n126                                1.8
x4.vdd.n19                                 1.8
x4.vdd.n52                                 1.8
x4.vdd.n51                                 1.8
x4.vdd.n56                                 1.8
x4.vdd.n55                                 1.8
x4.vdd.n16                                 1.8
x4.vdd.n130                                1.8
x4.vdd.n129                                1.8
x4.vdd.n128                                1.8
x4.vdd.n17                                 1.8
x4.vdd.n125                                1.8
x4.vdd.n124                                1.8
x4.vdd.n109                            1.79999
x4.vdd.n23                             1.79999
x4.vdd.n22                             1.79999
x4.vdd.n75                             1.79999
x4.vdd.n74                             1.79999
x4.vdd.n76                             1.79999
x4.vdd.n77                             1.79999
x4.vdd.n46                                 1.8
x4.vdd.n83                                 1.8
x4.vdd.n84                                 1.8
x4.vdd.n85                                 1.8
x4.vdd.n41                                 1.8
x4.vdd.n92                                 1.8
x4.vdd.n93                                 1.8
x4.vdd.n36                                 1.8
x4.vdd.n99                                 1.8
x4.vdd.n100                                1.8
x4.vdd.n101                                1.8
x4.vdd.n31                                 1.8
x4.vdd.n107                                1.8
[...]
x5.vout_n.t5                         0.0726244
x5.di_p.t14                                1.8
x5.vss.t43                           0.0141504
x5.vss.t42                         8.88888e-05
x5.di_n.t4                                 1.8
x5.clk.t13                                   0
x5.vdd.t7                                  1.8
x5.vdd.t6                                  1.8
x5.vdd.t17                             1.78644
x5.clk_bar.t9                                0
x5.vdd.t16                             1.79998
x5.vdd.t5                                  1.8
x5.clk.t14                                   0
x5.di_n.t3                                 1.8
x5.vdd.t4                                  1.8
x5.clk_bar.t10                               0
x5.vdd.t15                             1.78647
x5.vdd.t14                             1.79998
x5.di_p.t4                                 1.8
x5.vin_n.t7                           0.900896
x5.a_88_n1613.t29                     0.692704
x5.vdd.t13                             1.78644
x5.clk_bar.t11                               0
x5.vdd.t12                             1.79998
x5.di_n.t11                                1.8
x5.vin_p.t8                           0.950896
x5.a_88_n1613.t30                     0.692704
x5.a_88_n1613.t19                     0.692704
x5.vin_n.t8                           0.900896
x5.di_p.t3                                 1.8
x5.vout_p.t5                          0.169301
x5.vout_n.t11                        0.0877812
x5.vdd.t2                              1.79998
x5.vss.t47                           0.0141931
x5.di_p.t15                                1.8
x5.vout_n.t4                         0.0726935
x5.vss.t46                         8.88924e-05
x5.vss.t15                         4.84895e-12
x5.clk.t15                                   0
x5.a_88_n1613.t6                      0.692704
x5.di_n.t10                                1.8
x5.vin_p.t9                           0.950896
x5.a_88_n1613.t27                     0.692704
x5.vss.t57                         8.88803e-05
x5.a_88_n1613.t25                     0.692704
x5.vin_n.t9                           0.900896
x5.di_p.t2                                 1.8
x5.vss.t55                         8.88801e-05
x5.clk.n6                                    0
x5.clk.n5                                    0
x5.clk.n11                                   0
x5.clk.n9                                    0
x5.clk.n8                                    0
x5.clk.n3                                    0
x5.clk.n1                                    0
x5.clk.n0                                    0
x5.clk.n7                                    0
x5.clk.n10                                   0
x5.clk.n2                                    0
x5.clk.n12                                   0
x5.clk.n4                                    0
net18                                        0
x5.a_88_n1613.n1                      0.692704
x5.a_88_n1613.n16                     0.692704
x5.a_88_n1613.n15                     0.692704
x5.a_88_n1613.n14                     0.692704
x5.a_88_n1613.n13                     0.692704
x5.a_88_n1613.n0                      0.692704
x5.a_88_n1613.n12                     0.692704
x5.a_88_n1613.n11                     0.692704
x5.a_88_n1613.n3                      0.692704
x5.a_88_n1613.n2                      0.692704
x5.a_88_n1613.n8                      0.692704
x5.a_88_n1613.n9                      0.692704
x5.a_88_n1613.n7                      0.692704
x5.a_88_n1613.n5                      0.692704
x5.a_88_n1613.n4                      0.692704
x5.a_88_n1613.n10                     0.692704
x5.a_88_n1613.n6                      0.692704
x5.a_88_n1613.n18                     0.692704
x5.a_88_n1613.n17                     0.692704
x5.vss.n66                         8.88771e-05
x5.vss.n17                         8.88768e-05
x5.vss.n65                         8.88754e-05
x5.vss.n49                         8.88752e-05
x5.vss.n60                         8.88682e-05
x5.vss.n59                         8.88708e-05
x5.vss.n42                         8.88679e-05
x5.vss.n41                         8.88704e-05
x5.vss.n57                         8.88711e-05
x5.vss.n56                         8.88682e-05
x5.vss.n58                         8.88727e-05
x5.vss.n16                         8.88715e-05
x5.vss.n15                         8.88682e-05
x5.vss.n64                         8.88743e-05
x5.vss.n69                         8.88682e-05
x5.vss.n68                          8.8872e-05
x5.vss.n67                         8.88777e-05
x5.vss.n47                         8.88705e-05
x5.vss.n46                         8.88679e-05
x5.vss.n48                          8.8874e-05
x5.vss.n20                         8.88679e-05
x5.vss.n19                         8.88703e-05
x5.vss.n63                         8.88708e-05
x5.vss.n62                         8.88682e-05
x5.vss.n61                         8.88682e-05
x5.vss.n50                         8.88706e-05
x5.vss.n26                         8.88679e-05
x5.vss.n25                         8.88717e-05
x5.vss.n24                         8.88774e-05
x5.vss.n23                         8.88679e-05
x5.vss.n18                         8.88712e-05
x5.vss.n39                         8.88708e-05
x5.vss.n38                         8.88679e-05
x5.vss.n40                         8.88724e-05
x5.vss.n76                         5.21809e-05
x5.vss.n11                         1.66787e-05
x5.vss.n0                          1.66788e-05
x5.vss.n30                         6.57594e-05
x5.vss.n33                         8.88678e-05
x5.vss.n72                         8.88681e-05
x5.vss.n75                         6.57594e-05
x5.vss.n9                          1.15881e-07
x5.vss.n2                          1.15881e-07
x5.vss.n29                         5.21811e-05
x5.vss.n74                         7.93378e-05
x5.vss.n73                           0.0117687
x5.vss.n77                         3.38255e-05
x5.vss.n12                         3.38255e-05
x5.vss.n10                         4.01617e-12
x5.vss.n8                          4.01617e-12
x5.vss.n1                          4.01617e-12
x5.vss.n28                         3.38256e-05
x5.vss.n27                         3.38256e-05
x5.vss.n32                         7.93378e-05
x5.vss.n31                           0.0117688
x5.vss.n51                         8.88682e-05
x5.vss.n52                         8.88682e-05
x5.vss.n53                         8.88682e-05
x5.vss.n44                         8.88678e-05
x5.vss.n45                         8.88678e-05
x5.vss.n43                         8.88678e-05
x5.vss.n14                         8.88682e-05
x5.vss.n55                         8.88682e-05
x5.vss.n70                         8.88682e-05
x5.vss.n36                         8.88679e-05
x5.vss.n35                         8.88679e-05
x5.vss.n37                         8.88679e-05
x5.vss.n54                         8.88681e-05
x5.vss.n22                         8.88678e-05
x5.vss.n13                         8.88681e-05
x5.vss.n21                         8.88678e-05
x5.vss.n71                         8.88681e-05
x5.vss.n34                         8.88678e-05
x5.vss.n78                         6.20723e-06
x5.vss.n5                          6.20724e-06
x5.vss.n3                          6.07244e-06
x5.vss.n85                         5.62947e-06
x5.vss.n4                          5.36787e-06
x5.vss.n6                          5.27979e-06
x5.vss.n81                         5.36787e-06
x5.vss.n80                         5.62947e-06
x5.vss.n79                         6.07244e-06
x5.vss.n84                         3.87848e-07
x5.vss.n83                         2.19841e-07
x5.vss.n82                         2.19841e-07
x5.vss.n7                          3.87847e-07
di_p_kn                                    1.8
x5.di_n.n2                                 1.8
x5.di_n.n1                                 1.8
x5.di_n.n0                                 1.8
x5.di_n.n11                                1.8
x5.di_n.n9                                 1.8
x5.di_n.n4                                 1.8
x5.di_n.n3                                 1.8
x5.di_n.n6                                 1.8
x5.di_n.n5                                 1.8
x5.di_n.n8                                 1.8
x5.di_n.n7                                 1.8
x5.di_n.n10                                1.8
x5.di_n.n13                                1.8
x5.di_n.n12                                1.8
vout_p_kn                             0.087779
x5.vout_p.n2                          0.161292
x5.vout_p.n6                         0.0871667
x5.vout_p.n4                         0.0750057
x5.vout_p.n7                         0.0873106
x5.vout_p.n3                         0.0873106
x5.vout_p.n5                          0.075034
x5.vout_p.n0                          0.087779
x5.vout_p.n1                          0.087779
x5.vout_p.n9                          0.087779
x5.vout_p.n8                         0.0877663
x5.vin_p.n3                           0.950896
x5.vin_p.n5                           0.950896
x5.vin_p.n4                           0.950896
x5.vin_p.n1                           0.950896
x5.vin_p.n0                           0.950896
x5.vin_p.n6                           0.950896
x5.vin_p.n2                           0.950896
vp_kn                                 0.950896
x5.vin_n.n3                           0.900896
x5.vin_n.n5                           0.900896
x5.vin_n.n4                           0.900896
x5.vin_n.n1                           0.900896
x5.vin_n.n0                           0.900896
x5.vin_n.n6                           0.900896
x5.vin_n.n2                           0.900896
vn_kn                                 0.900896
di_n_kn                                    1.8
x5.di_p.n4                                 1.8
x5.di_p.n0                                 1.8
x5.di_p.n13                                1.8
x5.di_p.n3                                 1.8
x5.di_p.n1                                 1.8
x5.di_p.n6                                 1.8
x5.di_p.n5                                 1.8
x5.di_p.n8                                 1.8
x5.di_p.n7                                 1.8
x5.di_p.n10                                1.8
x5.di_p.n9                                 1.8
x5.di_p.n2                                 1.8
x5.di_p.n12                                1.8
x5.di_p.n11                                1.8
x5.vout_n.n4                         0.0877939
x5.vout_n.n0                          0.161293
x5.vout_n.n7                         0.0871671
x5.vout_n.n5                          0.075006
x5.vout_n.n9                         0.0873109
x5.vout_n.n8                         0.0873109
x5.vout_n.n6                         0.0750343
x5.vout_n.n1                         0.0877812
x5.vout_n.n2                         0.0877812
vout_n_kn                            0.0877812
x5.vout_n.n3                         0.0877812
x5.clk_bar.n8                                0
x5.clk_bar.n6                                0
x5.clk_bar.n5                                0
x5.clk_bar.n3                                0
x5.clk_bar.n1                                0
x5.clk_bar.n0                                0
x5.clk_bar.n7                                0
x5.clk_bar.n2                                0
x5.clk_bar.n9                                0
x5.clk_bar.n4                                0
net12                                        0
x5.vdd.n18                                 1.8
x5.vdd.n59                                 1.8
x5.vdd.n20                                 1.8
x5.vdd.n53                                 1.8
x5.vdd.n81                             1.79997
x5.vdd.n105                            1.79997
x5.vdd.n66                             1.79998
x5.vdd.n116                            1.79998
x5.vdd.n103                            1.79997
x5.vdd.n34                             1.78781
x5.vdd.n97                             1.79998
x5.vdd.n96                             1.78782
net13                                      1.8
x5.vdd.n39                             1.78784
x5.vdd.n90                             1.79998
x5.vdd.n89                             1.78782
x5.vdd.n87                             1.79997
x5.vdd.n44                             1.78781
x5.vdd.n9                                  1.8
x5.vdd.n7                                  1.8
x5.vdd.n117                            1.79998
x5.vdd.n64                             1.79998
x5.vdd.n118                            1.79998
x5.vdd.n70                             1.79998
x5.vdd.n8                                  1.8
x5.vdd.n115                            1.79998
x5.vdd.n114                            1.79998
x5.vdd.n27                             1.79998
x5.vdd.n26                             1.79998
x5.vdd.n68                             1.79998
x5.vdd.n67                             1.79998
x5.vdd.n69                             1.79998
x5.vdd.n65                             1.79998
x5.vdd.n11                                 1.8
x5.vdd.n10                                 1.8
x5.vdd.n3                                  1.8
x5.vdd.n2                                  1.8
x5.vdd.n6                                  1.8
x5.vdd.n5                                  1.8
x5.vdd.n72                             1.79998
x5.vdd.n71                             1.79998
x5.vdd.n120                            1.79998
x5.vdd.n119                            1.79998
x5.vdd.n113                            1.79998
x5.vdd.n112                            1.79997
x5.vdd.n79                             1.79997
x5.vdd.n49                             1.79998
x5.vdd.n4                                  1.8
x5.vdd.n0                                  1.8
x5.vdd.n13                                 1.8
x5.vdd.n12                                 1.8
x5.vdd.n25                             1.79998
x5.vdd.n63                             1.79998
x5.vdd.n1                                  1.8
x5.vdd.n73                             1.79999
x5.vdd.n62                             1.79999
x5.vdd.n122                            1.79999
x5.vdd.n121                            1.79999
x5.vdd.n61                                 1.8
x5.vdd.n60                                 1.8
x5.vdd.n123                                1.8
x5.vdd.n21                                 1.8
x5.vdd.n30                             1.79999
x5.vdd.n24                             1.79998
x5.vdd.n50                             1.79999
x5.vdd.n48                             1.79998
x5.vdd.n78                             1.79999
x5.vdd.n80                             1.79997
x5.vdd.n47                             1.79999
x5.vdd.n82                             1.79999
x5.vdd.n45                             1.79999
x5.vdd.n43                             1.79997
x5.vdd.n86                             1.79999
x5.vdd.n88                             1.79998
x5.vdd.n42                             1.79999
x5.vdd.n91                             1.79999
x5.vdd.n40                             1.79999
x5.vdd.n38                             1.79999
x5.vdd.n94                             1.79999
x5.vdd.n95                             1.79999
x5.vdd.n37                             1.79999
x5.vdd.n98                             1.79999
x5.vdd.n35                             1.79999
x5.vdd.n33                             1.79998
x5.vdd.n102                            1.79999
x5.vdd.n104                            1.79997
x5.vdd.n32                             1.79999
x5.vdd.n106                            1.79999
x5.vdd.n29                             1.79999
x5.vdd.n28                             1.79997
x5.vdd.n111                            1.79999
x5.vdd.n58                                 1.8
x5.vdd.n57                                 1.8
x5.vdd.n54                                 1.8
x5.vdd.n14                                 1.8
x5.vdd.n131                                1.8
x5.vdd.n15                                 1.8
x5.vdd.n127                                1.8
x5.vdd.n126                                1.8
x5.vdd.n19                                 1.8
x5.vdd.n52                                 1.8
x5.vdd.n51                                 1.8
x5.vdd.n56                                 1.8
x5.vdd.n55                                 1.8
x5.vdd.n16                                 1.8
x5.vdd.n130                                1.8
x5.vdd.n129                                1.8
x5.vdd.n128                                1.8
x5.vdd.n17                                 1.8
x5.vdd.n125                                1.8
x5.vdd.n124                                1.8
x5.vdd.n109                            1.79999
x5.vdd.n23                             1.79999
x5.vdd.n22                             1.79999
x5.vdd.n75                             1.79999
x5.vdd.n74                             1.79999
x5.vdd.n76                             1.79999
x5.vdd.n77                             1.79999
x5.vdd.n46                                 1.8
x5.vdd.n83                                 1.8
x5.vdd.n84                                 1.8
x5.vdd.n85                                 1.8
x5.vdd.n41                                 1.8
x5.vdd.n92                                 1.8
x5.vdd.n93                                 1.8
x5.vdd.n36                                 1.8
x5.vdd.n99                                 1.8
x5.vdd.n100                                1.8
x5.vdd.n101                                1.8
x5.vdd.n31                                 1.8
x5.vdd.n107                                1.8
x5.vdd.n108                                1.8
x5.vdd.n110                            1.79999
net11                                 0.900896
net14                                 0.950896
vdiff4#branch                      5.07556e-16
vcm4#branch                        9.88426e-16
vclk_bar5#branch                             0
vclk4#branch                                 0
vdd4#branch                       -0.000243926
vdd_latch#branch                  -2.05545e-05
vdiff2#branch                      4.44089e-16
vcm3#branch                        8.88178e-16
vclk_bar3#branch                             0
vclk3#branch                                 0
vdd3#branch                       -0.000243926
vcm2#branch                        4.44089e-16
vclk_bar2#branch                             0
vclk2#branch                                 0
vdd2#branch                       -0.000243926
vdiff#branch                       4.44089e-16
vcm#branch                         8.88178e-16
vclk_bar#branch                              0
vclk#branch                                  0
vdd#branch                        -0.000243837
asrc1#branch_0_0                             0


No. of Data Rows : 3095

Warning: command 'plot' is not available during batch simulation, ignored!
    You may use Gnuplot instead.


Warning: command 'plot' is not available during batch simulation, ignored!
    You may use Gnuplot instead.


Warning: command 'plot' is not available during batch simulation, ignored!
    You may use Gnuplot instead.


Warning: command 'plot' is not available during batch simulation, ignored!
    You may use Gnuplot instead.


Warning: command 'plot' is not available during batch simulation, ignored!
    You may use Gnuplot instead.


Warning: command 'plot' is not available during batch simulation, ignored!
    You may use Gnuplot instead.


Warning: command 'plot' is not available during batch simulation, ignored!
    You may use Gnuplot instead.


Warning: command 'plot' is not available during batch simulation, ignored!
    You may use Gnuplot instead.


Warning: command 'plot' is not available during batch simulation, ignored!
    You may use Gnuplot instead.

Note: Simulation executed from .control section 
