
Note: Compatibility modes selected: hs a

Warning: m=xx on .subckt line will override multiplier m hierarchy!


Circuit: ** sch_path: /fs1/eecg/tcc/lizongh2/sky130_comparator/xschem/double_tail_comp_tb.sch

option SCALE: Scale is set to 1e-06 for instance and model parameters
Reducing trtol to 1 for xspice 'A' devices
Doing analysis at TEMP = 27.000000 and TNOM = 27.000000


Initial Transient Solution
--------------------------

Node                                   Voltage
----                                   -------
di_n                                   1.79939
net13                                  1.09743
x1.net1                               0.901569
di_p                                   1.79939
vcm                                    1.04743
vclk                                         0
net1                                   1.79939
vout_p                                0.019736
vout_n                                0.019736
x1.net2                                1.29729
vclk_bar                                     0
net12                             -0.000611675
q_bar                                      1.8
q                                  1.21624e-06
x2.x1.net1                                 1.8
net2                                       1.8
x2.x2.net1                                 1.8
di_n_mc                                    1.8
vsc                                   0.987433
x3.net1                               0.859098
di_p_mc                                    1.8
net3                                   1.04743
net4                                         0
net6                                       1.8
vout_p_mc                            0.0197495
vout_n_mc                            0.0197495
x3.net2                                 1.2976
net5                                         0
di_n_ms                                    1.8
net8                                   1.04753
x4.net1                               0.874385
di_p_ms                                    1.8
net7                                   1.04743
net9                                         0
net11                                      1.8
vout_p_ms                            0.0197495
vout_n_ms                            0.0197495
x4.net2                                 1.2976
net10                                        0
di_n_kn                                    1.8
vp_kn                                  1.09743
x5.net1                               0.901552
di_p_kn                                    1.8
vn_kn                                  1.04743
net15                                        0
net17                                      1.8
vout_p_kn                            0.0197495
vout_n_kn                            0.0197495
x5.net2                                 1.2976
net16                                        0
net14                                  1.04743
net18                                  1.09743
vdiff4#branch                                0
vcm4#branch                                  0
vclk_bar5#branch                             0
vclk4#branch                                 0
vdd4#branch                       -0.000612282
vdd_latch#branch                  -6.52942e-10
vdiff2#branch                                0
vcm3#branch                                  0
vclk_bar3#branch                             0
vclk3#branch                                 0
vdd3#branch                       -0.000612282
vcm2#branch                                  0
vclk_bar2#branch                             0
vclk2#branch                                 0
vdd2#branch                       -0.000612282
vdiff#branch                                 0
vcm#branch                                   0
vclk_bar#branch                              0
vclk#branch                                  0
vdd#branch                        -0.000611675
asrc1#branch_0_0                             0


No. of Data Rows : 3095

Warning: command 'plot' is not available during batch simulation, ignored!
    You may use Gnuplot instead.


Warning: command 'plot' is not available during batch simulation, ignored!
    You may use Gnuplot instead.


Warning: command 'plot' is not available during batch simulation, ignored!
    You may use Gnuplot instead.


Warning: command 'plot' is not available during batch simulation, ignored!
    You may use Gnuplot instead.


Warning: command 'plot' is not available during batch simulation, ignored!
    You may use Gnuplot instead.


Warning: command 'plot' is not available during batch simulation, ignored!
    You may use Gnuplot instead.


Warning: command 'plot' is not available during batch simulation, ignored!
    You may use Gnuplot instead.

Reducing trtol to 1 for xspice 'A' devices
Doing analysis at TEMP = 27.000000 and TNOM = 27.000000

Note: vclk: dc value used for op instead of transient time=0 value.

No. of Data Rows : 1
ASCII raw file "double_tail_comp_tb_op"
Note: Simulation executed from .control section 
